================================
How to Use 5-text_indentation.py
================================

THIS MODULE PERFORMS THE ACTION OF INDENTING THE TEXT PROVIDED USING A FUNCTION NAMED ``text_indentation(text)``.

Usage
=====

THE FUNCTION PRINTS TWO NEW LINES AFTER THE FOLLOWING NEW SYMBOLS. ``.``, ``?``,
and ``:``.

::

    >>> text_indentation = __import__('5-text_indentation').text_indentation
    >>> text_indentation("What?")
    What?
    <BLANKLINE>


AT THE BEGINNING OF LINE NO SPACES ARE PRINTED.

::


    >>> text_indentation("   Hello Love.")
    Hello Love.
    <BLANKLINE>

::

    >>> text_indentation("          ")


LIKEWISE, NO SPACES ARE PRINTED AT THE END OF THE PRINTED LINE.

::

    >>> text_indentation("Hello.   ")
    Hello.
    <BLANKLINE>

::

    >>> text_indentation("    Let's go.    I am tired.   ")
    Let's go.
    <BLANKLINE>
    I am tired.
    <BLANKLINE>

ONLY FOR THE FOLLOWING CHARACTERS IS A NEW LINE IS PRINTED. ``.``, ``?``, and ``:``

::

    >>> text_indentation("NEW LINE PRINTED, ONLY FOR THEM")
    NEW LINE PRINTED, ONLY FOR THEM

New lines within a string are printed as normal.

::

    >>> text_indentation("Just out here printing new line! Like these:\nDone.")
    Just out here printing new line! Like these:
    <BLANKLINE>
    <BLANKLINE>
    Done.
    <BLANKLINE>

::

    >>> text_indentation("\n\n\n I just printed three new lines.")
    <BLANKLINE>
    <BLANKLINE>
    <BLANKLINE>
    I just printed three new lines.
    <BLANKLINE>

::

    >>> text_indentation("Quiet Place \n new line.")
    Quiet Place 
    new line.
    <BLANKLINE>

A combniation example:

::


    >>> text_indentation("Lorem ipsum dolor sit amet, consectetur adipiscing "
    ... "elit. Quonam modo? Utrum igitur tibi litteram videor an totas paginas "
    ... "commovere? Non autem hoc: igitur ne illud quidem. Fortasse id optimum, "
    ... "sed ubi illud: Plus semper voluptatis? Teneo, inquit, finem illi videri "
    ... "nihil dolere. Transfer idem ad modestiam vel temperantiam, quae est "
    ... "moderatio cupiditatum rationi oboediens. Si id dicis, vicimus. Inde "
    ... "sermone vario sex illa a Dipylo stadia confecimus. Sin aliud quid "
    ... "voles, postea. Quae animi affectio suum cuique tribuens atque hanc, "
    ... "quam dico. Utinam quidem dicerent alium alio beatiorem! Iam ruinas "
    ... "videres") # doctest: +NORMALIZE_WHITESPACE
    Lorem ipsum dolor sit amet, consectetur adipiscing elit.
    <BLANKLINE>
    Quonam modo?
    <BLANKLINE>
    Utrum igitur tibi litteram videor an totas paginas commovere?
    <BLANKLINE>
    Non autem hoc:
    <BLANKLINE>
    igitur ne illud quidem.
    <BLANKLINE>
    Fortasse id optimum, sed ubi illud:
    <BLANKLINE>
    Plus semper voluptatis?
    <BLANKLINE>
    Teneo, inquit, finem illi videri nihil dolere.
    <BLANKLINE>
    Transfer idem ad modestiam vel temperantiam, 
    quae est moderatio cupiditatum rationi oboediens.
    <BLANKLINE>
    Si id dicis, vicimus.
    <BLANKLINE>
    Inde sermone vario sex illa a Dipylo stadia confecimus.
    <BLANKLINE>
    Sin aliud quid voles, postea.
    <BLANKLINE>
    Quae animi affectio suum cuique tribuens atque hanc, quam dico.
    <BLANKLINE>
    Utinam quidem dicerent alium alio beatiorem! Iam ruinas videres

Invalid Text
============

A TypeError is raised, IF THE PARAMETER text ISN'T STRING.

::


    >>> text_indentation(7)
    Traceback (most recent call last):
    TypeError: text must be a string

::

    >>> text_indentation({"Three": 3, "Four": 4})
    Traceback (most recent call last):
    TypeError: text must be a string

::

    >>> text_indentation(None)
    Traceback (most recent call last):
    TypeError: text must be a string
